Circuit: * Z:\Users\pietera\projects\pietr\lab-psu\ltspice\c-measure-opamp.asc


Date: Mon Apr 08 22:59:53 2013
Total elapsed time: 0.079 seconds.

tnom = 27
temp = 27
method = trap
totiter = 143
traniter = 0
tranpoints = 0
accept = 0
rejected = 0
matrix size = 10
fillins = 3
solver = Normal
Matrix Compiler1: 508 bytes object code size  0.7/0.4/[0.4]
Matrix Compiler2: 864 bytes object code size  0.3/0.3/[0.1]


