Circuit: * Z:\home\pieter\projects\pietr\lab-psu\ltspice\c-measure-opamp.asc


Date: Sat May 24 13:04:02 2014
Total elapsed time: 0.049 seconds.

tnom = 27
temp = 27
method = trap
totiter = 143
traniter = 0
tranpoints = 0
accept = 0
rejected = 0
matrix size = 11
fillins = 3
solver = Normal
Matrix Compiler1:      33 opcodes  0.7/[0.4]/0.6
Matrix Compiler2: 937 bytes object code size  0.5/0.5/[0.4]


