Circuit: * Z:\home\pieter\projects\pietr\lab-psu\ltspice\input-v-measure.asc


Date: Tue Apr 15 22:37:52 2014
Total elapsed time: 0.042 seconds.

tnom = 27
temp = 27
method = trap
totiter = 803
traniter = 0
tranpoints = 0
accept = 0
rejected = 0
matrix size = 3
fillins = 0
solver = Normal
Matrix Compiler1: off  [0.2]/0.3/0.3
Matrix Compiler2:      15 opcodes  0.3/[0.3]/0.3


