Circuit: * Z:\Users\pietera\projects\pietr\lab-psu\rc-filter.asc


Date: Thu Mar 21 20:43:36 2013
Total elapsed time: 0.028 seconds.

tnom = 27
temp = 27
method = trap
totiter = 0
traniter = 0
tranpoints = 0
accept = 0
rejected = 0
matrix size = 4
fillins = 0
solver = Normal

