Circuit: * Z:\Users\pietera\projects\pietr\lab-psu\v-measure-opamp.asc


Date: Sun Mar 24 13:26:46 2013
Total elapsed time: 0.042 seconds.

tnom = 27
temp = 27
method = trap
totiter = 507
traniter = 0
tranpoints = 0
accept = 0
rejected = 0
matrix size = 10
fillins = 1
solver = Normal
Matrix Compiler1: 436 bytes object code size  0.7/0.3/[0.1]
Matrix Compiler2: off  [0.2]/0.4/0.3


