Circuit: * Z:\home\pieter\projects\pietr\lab-psu\ltspice\v-measure-opamp3.asc

.step r=1
.step r=11
.step r=21
.step r=31
.step r=41
.step r=51
.step r=61
.step r=71
.step r=81
.step r=91
.step r=100

Date: Tue Apr 15 23:28:02 2014
Total elapsed time: 0.261 seconds.

tnom = 27
temp = 27
method = trap
totiter = 346
traniter = 0
tranpoints = 0
accept = 0
rejected = 0
matrix size = 13
fillins = 3
solver = Normal
Matrix Compiler1:      36 opcodes  0.5/0.2/[0.2]
Matrix Compiler2: off  [0.3]/0.4/0.3


