Circuit: * Z:\Users\pietera\projects\pietr\lab-psu\ltspice\v-measure-opamp2.asc


Date: Mon Apr 01 16:23:38 2013
Total elapsed time: 0.026 seconds.

tnom = 27
temp = 27
method = trap
totiter = 347
traniter = 0
tranpoints = 0
accept = 0
rejected = 0
matrix size = 14
fillins = 4
solver = Normal
Matrix Compiler1: 664 bytes object code size  0.7/0.5/[0.1]
Matrix Compiler2: 1.15 KB object code size  0.5/0.7/[0.3]


