Circuit: * Z:\Users\pietera\projects\pietr\lab-psu\ltspice\v-measure-opamp.asc


Date: Mon Apr 01 10:19:03 2013
Total elapsed time: 0.057 seconds.

tnom = 27
temp = 27
method = trap
totiter = 507
traniter = 0
tranpoints = 0
accept = 0
rejected = 0
matrix size = 10
fillins = 1
solver = Normal
Matrix Compiler1: 436 bytes object code size  0.6/0.3/[0.3]
Matrix Compiler2: off  [0.2]/0.4/0.2


