Circuit: * Z:\Users\pietera\projects\pietr\lab-psu\v-measure.asc


Date: Sun Mar 24 14:37:36 2013
Total elapsed time: 0.032 seconds.

tnom = 27
temp = 27
method = trap
totiter = 523
traniter = 0
tranpoints = 0
accept = 0
rejected = 0
matrix size = 9
fillins = 0
solver = Normal
Matrix Compiler1: 260 bytes object code size  0.4/0.2/[0.1]
Matrix Compiler2: 619 bytes object code size  0.4/0.4/[0.1]


